WinEDMA version 1.0.1 beta (5/31/01)
Copyright (c) 2001

9/24/2020 10:22:07 AM

OUTPUT FOR ESTIMATION PROCEDURE: 

Input file: C:\Users\Kevin\Documents\GitHub\EDMA\pelvis_all mice.xyz
Output file: C:\Users\Kevin\Documents\GitHub\EDMA\pelvis_all mice.out

All Mice  

Number of landmarks:    18
Number of dimensions:   3
Number of observations: 78

XY(Z) coordinates of mean form

LND_1     -1.084  -2.134  -0.551 
LND_2     -6.082  -3.673   0.923 
LND_3     -7.220  -3.305   0.835 
LND_4     -7.091   3.503   0.807 
LND_5     -5.173   3.703   0.726 
LND_6     -2.767   2.325   0.222 
LND_7     -1.685   0.665  -1.101 
LND_8     -0.791   1.710  -0.760 
LND_9     -0.819   0.052  -1.678 
LND_10    -0.973   0.298  -0.389 
LND_11     1.890   0.664  -1.461 
LND_12     4.618   0.782   1.813 
LND_13    10.074   1.130   1.607 
LND_14    10.137   0.345  -0.989 
LND_15     9.597  -1.851  -0.070 
LND_16     6.605  -1.827   0.659 
LND_17    -2.099  -0.444  -0.547 
LND_18    -7.138  -1.943  -0.045 

Mean form matrix

LND_1      0.000 
LND_2      5.434   0.000 
LND_3      6.399   1.199   0.000 
LND_4      8.349   7.248   6.809   0.000 
LND_5      7.240   7.434   7.301   1.930   0.000 
LND_6      4.828   6.889   7.204   4.519   2.818   0.000 
LND_7      2.915   6.500   7.081   6.397   4.973   2.382   0.000 
LND_8      3.861   7.733   8.308   6.735   5.038   2.291   1.416   0.000 
LND_9      2.474   6.953   7.652   7.578   6.169   3.545   1.207   1.894   0.000 
LND_10     2.440   6.602   7.314   7.009   5.520   2.775   1.071   1.471   1.321   0.000 
LND_11     4.184   9.384  10.199   9.688   7.993   5.223   3.593   2.962   2.786   3.079   0.000 
LND_12     6.826  11.624  12.561  12.062  10.274   7.710   6.944   6.061   6.502   6.029   4.263   0.000 
LND_13    11.824  16.869  17.870  17.347  15.487  12.971  12.075  11.135  11.428  11.257   8.753   5.471   0.000 
LND_14    11.500  16.819  17.830  17.607  15.767  13.111  11.827  11.015  10.982  11.127   8.267   6.205   2.713   0.000 
LND_15    10.695  15.816  16.904  17.548  15.800  13.054  11.605  11.003  10.710  10.792   8.226   5.939   3.454   2.441   0.000 
LND_16     7.789  12.823  13.904  14.697  13.011  10.259   8.833   8.319   8.006   7.940   5.738   3.476   4.656   4.462   3.080   0.000 
LND_17     1.972   5.334   6.026   6.506   5.316   2.950   1.307   2.529   1.779   1.358   4.240   7.224  12.462  12.270  11.790   8.895   0.000 
LND_18     6.078   2.246   1.624   5.513   6.027   6.115   6.136   7.358   6.825   6.568   9.503  12.209  17.562  17.451  16.735  13.761   5.281   0.000 

Improved estimate of Sigma K* (Lele 1993):

LND_1      0.01214 
LND_2     -0.00323   0.04340 
LND_3     -0.00377   0.03956   0.05397 
LND_4     -0.00064   0.01536   0.01559   0.04943 
LND_5      0.00042   0.01091   0.01029   0.02956   0.03428 
LND_6      0.00077   0.00694   0.00684   0.01967   0.01726   0.01895 
LND_7      0.00137   0.00472   0.00598   0.01035   0.00599   0.00668   0.01361 
LND_8      0.00076   0.00009   0.00079   0.00518   0.00281   0.00601   0.00660   0.01037 
LND_9      0.00166   0.00211   0.00517   0.01076   0.00618   0.00594   0.00592   0.00583   0.00738 
LND_10     0.00021   0.00064   0.00035   0.00696   0.00510   0.00509   0.00631   0.00582   0.00431   0.00998 
LND_11     0.00363  -0.00548  -0.00356  -0.00087  -0.00161  -0.00050  -0.00123   0.00226  -0.00098  -0.00061   0.00551 
LND_12    -0.00317  -0.01449  -0.02156  -0.03145  -0.02442  -0.01407  -0.01050  -0.00580  -0.00765  -0.00212   0.00176   0.06406 
LND_13    -0.00260  -0.04189  -0.04687  -0.04792  -0.03528  -0.02487  -0.01062  -0.00432  -0.00573  -0.00830   0.00966   0.02483   0.07363 
LND_14    -0.00175  -0.03175  -0.03337  -0.03758  -0.03184  -0.02558  -0.01801  -0.01159  -0.01217  -0.01348   0.00032   0.01781   0.06531   0.08500 
LND_15    -0.00397  -0.04003  -0.04084  -0.02767  -0.02166  -0.01915  -0.01167  -0.00749  -0.00936  -0.01188   0.00459   0.01750   0.05041   0.05806   0.06160 
LND_16    -0.01061  -0.03425  -0.04034  -0.03599  -0.02030  -0.01878  -0.01900  -0.01325  -0.02163  -0.01054  -0.00304   0.03781   0.05871   0.03850   0.04392   0.10451 
LND_17     0.00542   0.01085   0.01134   0.00470   0.00383   0.00441   0.00219   0.00054   0.00110   0.00208  -0.00251  -0.00512  -0.01339  -0.01728  -0.01498  -0.01834   0.01496 
LND_18     0.00337   0.03653   0.04043   0.01455   0.00849   0.00439   0.00132  -0.00461   0.00116   0.00008  -0.00735  -0.02340  -0.04077  -0.03060  -0.02738  -0.03740   0.01021   0.05097 

  Rank of improved estimate = 15
  If rank<=K-2, use of further-improved estimate is suggested.

Further-improved estimate of Sigma K*:

LND_1      0.01271 
LND_2     -0.00281   0.04378 
LND_3     -0.00319   0.03991   0.05464 
LND_4     -0.00023   0.01553   0.01614   0.04997 
LND_5      0.00052   0.01088   0.01049   0.02982   0.03444 
LND_6      0.00099   0.00707   0.00709   0.01987   0.01734   0.01904 
LND_7      0.00093   0.00440   0.00553   0.01003   0.00591   0.00651   0.01395 
LND_8      0.00053  -0.00016   0.00065   0.00518   0.00289   0.00596   0.00677   0.01056 
LND_9      0.00100   0.00189   0.00421   0.00977   0.00569   0.00559   0.00643   0.00576   0.00919 
LND_10     0.00047   0.00091   0.00052   0.00699   0.00503   0.00515   0.00611   0.00562   0.00434   0.01019 
LND_11     0.00266  -0.00602  -0.00474  -0.00190  -0.00203  -0.00093  -0.00048   0.00242   0.00083  -0.00084   0.00762 
LND_12    -0.00306  -0.01449  -0.02134  -0.03119  -0.02428  -0.01399  -0.01060  -0.00574  -0.00814  -0.00218   0.00133   0.06420 
LND_13    -0.00152  -0.04136  -0.04546  -0.04661  -0.03470  -0.02435  -0.01147  -0.00440  -0.00807  -0.00814   0.00710   0.02541   0.07682 
LND_14    -0.00245  -0.03220  -0.03416  -0.03820  -0.03205  -0.02587  -0.01747  -0.01140  -0.01110  -0.01371   0.00168   0.01757   0.06371   0.08593 
LND_15    -0.00341  -0.03959  -0.04030  -0.02732  -0.02161  -0.01895  -0.01210  -0.00775  -0.00988  -0.01159   0.00372   0.01758   0.05135   0.05740   0.06217 
LND_16    -0.01105  -0.03447  -0.04091  -0.03651  -0.02053  -0.01899  -0.01866  -0.01321  -0.02069  -0.01061  -0.00200   0.03757   0.05742   0.03916   0.04353   0.10503 
LND_17     0.00499   0.01058   0.01087   0.00432   0.00370   0.00424   0.00252   0.00066   0.00174   0.00193  -0.00169  -0.00526  -0.01436  -0.01673  -0.01538  -0.01795   0.01529 
LND_18     0.00292   0.03613   0.04004   0.01434   0.00850   0.00424   0.00166  -0.00435   0.00144  -0.00019  -0.00674  -0.02341  -0.04137  -0.03011  -0.02786  -0.03714   0.01051   0.05139 

Confidence intervals for mean interlandmark distances: 

   Confidence intervals are based on 1000 resamples.
   Nonparametric bootstrap resampling was used.
   Alpha level: 0.10

               Low     ESTIMATE     High
LND_1    LND_2       5.387      5.434    5.481
LND_1    LND_3       6.347      6.399    6.449
LND_2    LND_3       1.162      1.199    1.236
LND_1    LND_4       8.304      8.349    8.396
LND_2    LND_4       7.198      7.248    7.295
LND_3    LND_4       6.755      6.809    6.863
LND_1    LND_5       7.196      7.240    7.283
LND_2    LND_5       7.387      7.434    7.482
LND_3    LND_5       7.249      7.301    7.355
LND_4    LND_5       1.897      1.930    1.966
LND_1    LND_6       4.796      4.828    4.860
LND_2    LND_6       6.845      6.889    6.932
LND_3    LND_6       7.157      7.204    7.249
LND_4    LND_6       4.490      4.519    4.550
LND_5    LND_6       2.786      2.818    2.848
LND_1    LND_7       2.895      2.915    2.937
LND_2    LND_7       6.459      6.500    6.542
LND_3    LND_7       7.039      7.081    7.125
LND_4    LND_7       6.365      6.397    6.431
LND_5    LND_7       4.939      4.973    5.006
LND_6    LND_7       2.358      2.382    2.406
LND_1    LND_8       3.838      3.861    3.882
LND_2    LND_8       7.688      7.733    7.780
LND_3    LND_8       8.260      8.308    8.356
LND_4    LND_8       6.696      6.735    6.770
LND_5    LND_8       5.001      5.038    5.074
LND_6    LND_8       2.266      2.291    2.315
LND_7    LND_8       1.400      1.416    1.435
LND_1    LND_9       2.452      2.474    2.496
LND_2    LND_9       6.909      6.953    6.998
LND_3    LND_9       7.608      7.652    7.696
LND_4    LND_9       7.542      7.578    7.612
LND_5    LND_9       6.134      6.169    6.201
LND_6    LND_9       3.521      3.545    3.566
LND_7    LND_9       1.192      1.207    1.223
LND_8    LND_9       1.882      1.894    1.908
LND_1    LND_10      2.419      2.440    2.462
LND_2    LND_10      6.560      6.602    6.645
LND_3    LND_10      7.269      7.314    7.360
LND_4    LND_10      6.972      7.009    7.044
LND_5    LND_10      5.488      5.520    5.550
LND_6    LND_10      2.753      2.775    2.795
LND_7    LND_10      1.047      1.071    1.094
LND_8    LND_10      1.454      1.471    1.487
LND_9    LND_10      1.304      1.321    1.336
LND_1    LND_11      4.160      4.184    4.205
LND_2    LND_11      9.334      9.384    9.434
LND_3    LND_11     10.145     10.199   10.251
LND_4    LND_11      9.644      9.688    9.731
LND_5    LND_11      7.951      7.993    8.033
LND_6    LND_11      5.192      5.223    5.252
LND_7    LND_11      3.567      3.593    3.619
LND_8    LND_11      2.942      2.962    2.983
LND_9    LND_11      2.760      2.786    2.810
LND_10   LND_11      3.054      3.079    3.103
LND_1    LND_12      6.771      6.826    6.881
LND_2    LND_12     11.549     11.624   11.697
LND_3    LND_12     12.479     12.561   12.640
LND_4    LND_12     11.987     12.062   12.139
LND_5    LND_12     10.201     10.274   10.346
LND_6    LND_12      7.647      7.710    7.772
LND_7    LND_12      6.881      6.944    7.006
LND_8    LND_12      6.004      6.061    6.116
LND_9    LND_12      6.443      6.502    6.560
LND_10   LND_12      5.971      6.029    6.085
LND_11   LND_12      4.212      4.263    4.309
LND_1    LND_13     11.767     11.824   11.879
LND_2    LND_13     16.779     16.869   16.960
LND_3    LND_13     17.777     17.870   17.961
LND_4    LND_13     17.261     17.347   17.432
LND_5    LND_13     15.405     15.487   15.567
LND_6    LND_13     12.903     12.971   13.041
LND_7    LND_13     12.014     12.075   12.139
LND_8    LND_13     11.079     11.135   11.196
LND_9    LND_13     11.369     11.428   11.492
LND_10   LND_13     11.200     11.257   11.320
LND_11   LND_13      8.702      8.753    8.805
LND_12   LND_13      5.407      5.471    5.540
LND_1    LND_14     11.446     11.500   11.555
LND_2    LND_14     16.735     16.819   16.901
LND_3    LND_14     17.746     17.830   17.912
LND_4    LND_14     17.525     17.607   17.691
LND_5    LND_14     15.689     15.767   15.842
LND_6    LND_14     13.041     13.111   13.180
LND_7    LND_14     11.765     11.827   11.892
LND_8    LND_14     10.958     11.015   11.076
LND_9    LND_14     10.921     10.982   11.044
LND_10   LND_14     11.070     11.127   11.189
LND_11   LND_14      8.218      8.267    8.319
LND_12   LND_14      6.154      6.205    6.264
LND_13   LND_14      2.679      2.713    2.745
LND_1    LND_15     10.641     10.695   10.749
LND_2    LND_15     15.727     15.816   15.898
LND_3    LND_15     16.815     16.904   16.986
LND_4    LND_15     17.469     17.548   17.625
LND_5    LND_15     15.726     15.800   15.871
LND_6    LND_15     12.989     13.054   13.120
LND_7    LND_15     11.548     11.605   11.665
LND_8    LND_15     10.949     11.003   11.061
LND_9    LND_15     10.654     10.710   10.769
LND_10   LND_15     10.736     10.792   10.851
LND_11   LND_15      8.180      8.226    8.275
LND_12   LND_15      5.882      5.939    6.000
LND_13   LND_15      3.417      3.454    3.489
LND_14   LND_15      2.406      2.441    2.479
LND_1    LND_16      7.714      7.789    7.859
LND_2    LND_16     12.728     12.823   12.910
LND_3    LND_16     13.805     13.904   13.997
LND_4    LND_16     14.610     14.697   14.785
LND_5    LND_16     12.932     13.011   13.094
LND_6    LND_16     10.181     10.259   10.335
LND_7    LND_16      8.760      8.833    8.905
LND_8    LND_16      8.250      8.319    8.388
LND_9    LND_16      7.934      8.006    8.076
LND_10   LND_16      7.868      7.940    8.011
LND_11   LND_16      5.677      5.738    5.799
LND_12   LND_16      3.421      3.476    3.537
LND_13   LND_16      4.596      4.656    4.712
LND_14   LND_16      4.401      4.462    4.521
LND_15   LND_16      3.013      3.080    3.145
LND_1    LND_17      1.949      1.972    1.994
LND_2    LND_17      5.294      5.334    5.370
LND_3    LND_17      5.985      6.026    6.066
LND_4    LND_17      6.459      6.506    6.553
LND_5    LND_17      5.272      5.316    5.360
LND_6    LND_17      2.913      2.950    2.987
LND_7    LND_17      1.284      1.307    1.330
LND_8    LND_17      2.504      2.529    2.555
LND_9    LND_17      1.744      1.779    1.813
LND_10   LND_17      1.332      1.358    1.386
LND_11   LND_17      4.212      4.240    4.270
LND_12   LND_17      7.168      7.224    7.280
LND_13   LND_17     12.398     12.462   12.529
LND_14   LND_17     12.207     12.270   12.334
LND_15   LND_17     11.729     11.790   11.850
LND_16   LND_17      8.820      8.895    8.970
LND_1    LND_18      6.039      6.078    6.119
LND_2    LND_18      2.215      2.246    2.277
LND_3    LND_18      1.592      1.624    1.655
LND_4    LND_18      5.462      5.513    5.565
LND_5    LND_18      5.979      6.027    6.079
LND_6    LND_18      6.073      6.115    6.155
LND_7    LND_18      6.094      6.136    6.178
LND_8    LND_18      7.313      7.358    7.401
LND_9    LND_18      6.783      6.825    6.866
LND_10   LND_18      6.525      6.568    6.611
LND_11   LND_18      9.458      9.503    9.547
LND_12   LND_18     12.133     12.209   12.281
LND_13   LND_18     17.474     17.562   17.651
LND_14   LND_18     17.368     17.451   17.536
LND_15   LND_18     16.650     16.735   16.820
LND_16   LND_18     13.673     13.761   13.846
LND_17   LND_18      5.247      5.281    5.314

Confidence intervals for among-landmark variances and covariances (Sigma K*):

   Confidence intervals are based on 1000 resamples.
   Nonparametric bootstrap resampling was used.
   Alpha level: 0.10

  Variances:
         Low     ESTIMATE     High
LND_1     0.00897    0.01271  0.01772
LND_2     0.03234    0.04378  0.05655
LND_3     0.04116    0.05464  0.07049
LND_4     0.03939    0.04997  0.06136
LND_5     0.02568    0.03444  0.04490
LND_6     0.01460    0.01904  0.02339
LND_7     0.01140    0.01395  0.01674
LND_8     0.00799    0.01056  0.01318
LND_9     0.00706    0.00919  0.01245
LND_10    0.00821    0.01019  0.01247
LND_11    0.00597    0.00762  0.00968
LND_12    0.04952    0.06420  0.07917
LND_13    0.05860    0.07682  0.10071
LND_14    0.06940    0.08593  0.10412
LND_15    0.04908    0.06217  0.07617
LND_16    0.08147    0.10503  0.12665
LND_17    0.01142    0.01529  0.01994
LND_18    0.04104    0.05139  0.06318

  Covariances:
                        Low     ESTIMATE     High
LND_1    LND_2    -0.00704   -0.00281  0.00200
LND_1    LND_3    -0.00782   -0.00319  0.00126
LND_2    LND_3     0.02790    0.03991  0.05322
LND_1    LND_4    -0.00446   -0.00023  0.00320
LND_2    LND_4     0.00539    0.01553  0.02567
LND_3    LND_4     0.00558    0.01614  0.02876
LND_1    LND_5    -0.00357    0.00052  0.00380
LND_2    LND_5     0.00254    0.01088  0.01818
LND_3    LND_5     0.00182    0.01049  0.01918
LND_4    LND_5     0.02135    0.02982  0.03949
LND_1    LND_6    -0.00173    0.00099  0.00295
LND_2    LND_6     0.00233    0.00707  0.01127
LND_3    LND_6     0.00243    0.00709  0.01133
LND_4    LND_6     0.01458    0.01987  0.02552
LND_5    LND_6     0.01262    0.01734  0.02281
LND_1    LND_7    -0.00076    0.00093  0.00236
LND_2    LND_7    -0.00024    0.00440  0.00838
LND_3    LND_7     0.00078    0.00553  0.00981
LND_4    LND_7     0.00606    0.01003  0.01374
LND_5    LND_7     0.00225    0.00591  0.00979
LND_6    LND_7     0.00419    0.00651  0.00889
LND_1    LND_8    -0.00133    0.00053  0.00182
LND_2    LND_8    -0.00422   -0.00016  0.00360
LND_3    LND_8    -0.00381    0.00065  0.00470
LND_4    LND_8     0.00146    0.00518  0.00877
LND_5    LND_8    -0.00032    0.00289  0.00654
LND_6    LND_8     0.00335    0.00596  0.00852
LND_7    LND_8     0.00447    0.00677  0.00920
LND_1    LND_9    -0.00026    0.00100  0.00282
LND_2    LND_9    -0.00204    0.00189  0.00642
LND_3    LND_9    -0.00058    0.00421  0.00920
LND_4    LND_9     0.00546    0.00977  0.01345
LND_5    LND_9     0.00209    0.00569  0.00857
LND_6    LND_9     0.00318    0.00559  0.00761
LND_7    LND_9     0.00433    0.00643  0.00888
LND_8    LND_9     0.00371    0.00576  0.00809
LND_1    LND_10   -0.00086    0.00047  0.00192
LND_2    LND_10   -0.00312    0.00091  0.00542
LND_3    LND_10   -0.00411    0.00052  0.00570
LND_4    LND_10    0.00380    0.00699  0.00993
LND_5    LND_10    0.00238    0.00503  0.00715
LND_6    LND_10    0.00305    0.00515  0.00706
LND_7    LND_10    0.00437    0.00611  0.00794
LND_8    LND_10    0.00388    0.00562  0.00741
LND_9    LND_10    0.00251    0.00434  0.00672
LND_1    LND_11    0.00109    0.00266  0.00437
LND_2    LND_11   -0.01005   -0.00602 -0.00239
LND_3    LND_11   -0.00895   -0.00474 -0.00077
LND_4    LND_11   -0.00553   -0.00190  0.00154
LND_5    LND_11   -0.00515   -0.00203  0.00114
LND_6    LND_11   -0.00282   -0.00093  0.00104
LND_7    LND_11   -0.00218   -0.00048  0.00148
LND_8    LND_11    0.00084    0.00242  0.00420
LND_9    LND_11   -0.00075    0.00083  0.00261
LND_10   LND_11   -0.00235   -0.00084  0.00074
LND_1    LND_12   -0.00779   -0.00306  0.00117
LND_2    LND_12   -0.02605   -0.01449 -0.00403
LND_3    LND_12   -0.03388   -0.02134 -0.00869
LND_4    LND_12   -0.04350   -0.03119 -0.01806
LND_5    LND_12   -0.03573   -0.02428 -0.01321
LND_6    LND_12   -0.02064   -0.01399 -0.00746
LND_7    LND_12   -0.01504   -0.01060 -0.00634
LND_8    LND_12   -0.00961   -0.00574 -0.00209
LND_9    LND_12   -0.01287   -0.00814 -0.00453
LND_10   LND_12   -0.00584   -0.00218  0.00085
LND_11   LND_12   -0.00296    0.00133  0.00526
LND_1    LND_13   -0.00737   -0.00152  0.00365
LND_2    LND_13   -0.05592   -0.04136 -0.02654
LND_3    LND_13   -0.06346   -0.04546 -0.03036
LND_4    LND_13   -0.06010   -0.04661 -0.03379
LND_5    LND_13   -0.04657   -0.03470 -0.02252
LND_6    LND_13   -0.03080   -0.02435 -0.01817
LND_7    LND_13   -0.01668   -0.01147 -0.00685
LND_8    LND_13   -0.00911   -0.00440 -0.00040
LND_9    LND_13   -0.01457   -0.00807 -0.00355
LND_10   LND_13   -0.01309   -0.00814 -0.00415
LND_11   LND_13    0.00179    0.00710  0.01178
LND_12   LND_13    0.01181    0.02541  0.04084
LND_1    LND_14   -0.00799   -0.00245  0.00348
LND_2    LND_14   -0.04493   -0.03220 -0.02029
LND_3    LND_14   -0.04817   -0.03416 -0.02180
LND_4    LND_14   -0.05139   -0.03820 -0.02511
LND_5    LND_14   -0.04675   -0.03205 -0.01902
LND_6    LND_14   -0.03371   -0.02587 -0.01864
LND_7    LND_14   -0.02224   -0.01747 -0.01239
LND_8    LND_14   -0.01598   -0.01140 -0.00660
LND_9    LND_14   -0.01634   -0.01110 -0.00636
LND_10   LND_14   -0.01842   -0.01371 -0.00942
LND_11   LND_14   -0.00226    0.00168  0.00585
LND_12   LND_14    0.00314    0.01757  0.03379
LND_13   LND_14    0.04666    0.06371  0.08280
LND_1    LND_15   -0.00796   -0.00341  0.00234
LND_2    LND_15   -0.05183   -0.03959 -0.02698
LND_3    LND_15   -0.05501   -0.04030 -0.02775
LND_4    LND_15   -0.03988   -0.02732 -0.01679
LND_5    LND_15   -0.03318   -0.02161 -0.01187
LND_6    LND_15   -0.02575   -0.01895 -0.01287
LND_7    LND_15   -0.01688   -0.01210 -0.00771
LND_8    LND_15   -0.01286   -0.00775 -0.00339
LND_9    LND_15   -0.01561   -0.00988 -0.00408
LND_10   LND_15   -0.01577   -0.01159 -0.00748
LND_11   LND_15   -0.00023    0.00372  0.00745
LND_12   LND_15    0.00449    0.01758  0.03100
LND_13   LND_15    0.03668    0.05135  0.06687
LND_14   LND_15    0.04287    0.05740  0.07176
LND_1    LND_16   -0.01510   -0.01105 -0.00537
LND_2    LND_16   -0.04777   -0.03447 -0.01961
LND_3    LND_16   -0.05638   -0.04091 -0.02603
LND_4    LND_16   -0.05327   -0.03651 -0.01994
LND_5    LND_16   -0.03412   -0.02053 -0.00800
LND_6    LND_16   -0.02636   -0.01899 -0.01097
LND_7    LND_16   -0.02392   -0.01866 -0.01316
LND_8    LND_16   -0.01835   -0.01321 -0.00839
LND_9    LND_16   -0.02588   -0.02069 -0.01501
LND_10   LND_16   -0.01518   -0.01061 -0.00583
LND_11   LND_16   -0.00667   -0.00200  0.00261
LND_12   LND_16    0.02610    0.03757  0.04741
LND_13   LND_16    0.03788    0.05742  0.07427
LND_14   LND_16    0.02055    0.03916  0.05597
LND_15   LND_16    0.02496    0.04353  0.06066
LND_1    LND_17    0.00249    0.00499  0.00761
LND_2    LND_17    0.00541    0.01058  0.01543
LND_3    LND_17    0.00496    0.01087  0.01683
LND_4    LND_17   -0.00182    0.00432  0.00988
LND_5    LND_17   -0.00139    0.00370  0.00875
LND_6    LND_17    0.00111    0.00424  0.00720
LND_7    LND_17    0.00076    0.00252  0.00450
LND_8    LND_17   -0.00093    0.00066  0.00257
LND_9    LND_17   -0.00010    0.00174  0.00392
LND_10   LND_17   -0.00001    0.00193  0.00375
LND_11   LND_17   -0.00361   -0.00169  0.00049
LND_12   LND_17   -0.00955   -0.00526 -0.00100
LND_13   LND_17   -0.02255   -0.01436 -0.00707
LND_14   LND_17   -0.02467   -0.01673 -0.00899
LND_15   LND_17   -0.02295   -0.01538 -0.00820
LND_16   LND_17   -0.02517   -0.01795 -0.01117
LND_1    LND_18   -0.00245    0.00292  0.00682
LND_2    LND_18    0.02591    0.03613  0.04558
LND_3    LND_18    0.02904    0.04004  0.05172
LND_4    LND_18    0.00438    0.01434  0.02485
LND_5    LND_18   -0.00032    0.00850  0.01851
LND_6    LND_18   -0.00002    0.00424  0.00902
LND_7    LND_18   -0.00201    0.00166  0.00551
LND_8    LND_18   -0.00816   -0.00435 -0.00007
LND_9    LND_18   -0.00341    0.00144  0.00616
LND_10   LND_18   -0.00423   -0.00019  0.00393
LND_11   LND_18   -0.01024   -0.00674 -0.00317
LND_12   LND_18   -0.03334   -0.02341 -0.01376
LND_13   LND_18   -0.05695   -0.04137 -0.02762
LND_14   LND_18   -0.04333   -0.03011 -0.01780
LND_15   LND_18   -0.04307   -0.02786 -0.01519
LND_16   LND_18   -0.04861   -0.03714 -0.02584
LND_17   LND_18    0.00494    0.01051  0.01656

